<?xml version="1.0" encoding="UTF-8"?>

<!-- generated on 03/21/18 11:03:54 by SUMO polyconvert Version 0.32.0
<?xml version="1.0" encoding="UTF-8"?>

<configuration xmlns:xsi="http://www.w3.org/2001/XMLSchema-instance" xsi:noNamespaceSchemaLocation="http://sumo.dlr.de/xsd/polyconvertConfiguration.xsd">

    <input>
        <net-file value="gangnam.net.xml"/>
        <osm-files value="gangnam.osm"/>
        <type-file value="osmPolyconvert.typ.xml"/>
    </input>

    <output>
        <output-file value="gangnam.poly.xml"/>
    </output>

    <processing>
        <poi-layer-offset value="5"/>
    </processing>

</configuration>
-->

<additional xmlns:xsi="http://www.w3.org/2001/XMLSchema-instance" xsi:noNamespaceSchemaLocation="http://sumo.dlr.de/xsd/additional_file.xsd">
    <location netOffset="-309647.99,-4128414.86" convBoundary="0.00,0.00,24897.13,28365.37" origBoundary="126.847118,37.286399,127.129481,37.541837" projParameter="+proj=utm +zone=52 +ellps=WGS84 +datum=WGS84 +units=m +no_defs"/>

    <poly id="117785748" type="building" color="255,230,230" fill="1" layer="-1.00" shape="16896.67,24613.03 16906.52,24584.95 17011.33,24583.24 17024.30,24590.99 16984.20,24647.10 16896.67,24613.03"/>
    <poly id="117790027" type="building" color="255,230,230" fill="1" layer="-1.00" shape="16242.86,23857.81 16253.20,23828.22 16258.53,23830.08 16260.96,23823.13 16250.35,23819.46 16252.97,23811.96 16258.35,23813.82 16260.63,23807.28 16266.49,23809.31 16267.44,23806.58 16271.68,23808.06 16274.67,23799.49 16273.14,23798.96 16277.01,23787.90 16316.68,23801.64 16311.29,23817.08 16305.25,23814.99 16301.55,23825.60 16302.74,23826.02 16296.10,23845.01 16291.14,23843.29 16281.40,23871.16 16242.86,23857.81"/>
    <poly id="117795643" type="building" color="255,230,230" fill="1" layer="-1.00" shape="17307.69,23886.53 17313.61,23869.43 17364.22,23886.82 17354.99,23913.46 17336.99,23907.29 17340.31,23897.74 17307.69,23886.53"/>
    <poly id="117823775" type="building" color="255,230,230" fill="1" layer="-1.00" shape="16341.20,23590.78 16394.28,23610.40 16386.37,23631.58 16333.30,23611.96 16341.20,23590.78"/>
    <poly id="117823787" type="building" color="255,230,230" fill="1" layer="-1.00" shape="16768.01,23710.70 16779.44,23714.81 16782.19,23707.20 16791.09,23710.66 16794.54,23701.85 16805.09,23705.54 16801.79,23714.28 16812.02,23717.68 16809.59,23724.91 16821.48,23728.70 16825.71,23727.06 16830.46,23728.52 16833.62,23733.76 16831.15,23740.18 16827.49,23741.27 16817.53,23767.53 16819.68,23773.20 16817.61,23779.08 16811.95,23781.10 16807.30,23779.54 16805.08,23775.57 16752.16,23757.31 16747.81,23759.41 16741.48,23757.30 16739.22,23751.55 16741.31,23746.44 16745.13,23744.75 16755.41,23717.14 16753.11,23712.17 16755.25,23706.92 16760.72,23704.56 16765.56,23706.12 16768.01,23710.70"/>
    <poly id="133604993" type="building" color="255,230,230" fill="0" layer="-1.00" shape="18763.33,24898.36 18790.03,24908.07 18781.62,24930.86 18754.75,24920.99"/>
    <poly id="137380726" type="building" color="255,230,230" fill="1" layer="-1.00" shape="18888.40,24827.63 18872.97,24793.61 18905.76,24778.81 18921.22,24812.86 18888.40,24827.63"/>
    <poly id="152609808" type="amenity" color="237,199,199" fill="1" layer="-1.00" shape="19235.51,24830.80 19225.38,24854.79 19204.30,24845.97 19214.41,24821.97 19235.51,24830.80"/>
    <poly id="152609808#1" type="building" color="255,230,230" fill="1" layer="-1.00" shape="19235.51,24830.80 19225.38,24854.79 19204.30,24845.97 19214.41,24821.97 19235.51,24830.80"/>
    <poly id="158804851" type="building" color="255,230,230" fill="1" layer="-1.00" shape="17881.00,24039.60 17896.29,24044.95 17903.24,24025.67 17887.98,24019.45 17881.00,24039.60"/>
    <poly id="164655841" type="building" color="255,230,230" fill="1" layer="-1.00" shape="18706.62,24563.88 18741.81,24575.86 18752.54,24545.77 18717.15,24534.25 18706.62,24563.88"/>
    <poly id="169235087" type="building" color="255,230,230" fill="1" layer="-1.00" shape="17722.29,24050.23 17703.48,24103.99 17656.48,24086.70 17674.82,24032.93 17722.29,24050.23"/>
    <poly id="170336975" type="amenity" color="237,199,199" fill="1" layer="-1.00" shape="19299.35,24909.53 19303.25,24911.05 19311.46,24916.54 19323.25,24917.96 19327.49,24919.59 19336.72,24893.39 19309.10,24883.14 19299.35,24909.53"/>
    <poly id="170336975#1" type="building" color="255,230,230" fill="1" layer="-1.00" shape="19299.35,24909.53 19303.25,24911.05 19311.46,24916.54 19323.25,24917.96 19327.49,24919.59 19336.72,24893.39 19309.10,24883.14 19299.35,24909.53"/>
    <poly id="170336980" type="building" color="255,230,230" fill="1" layer="-1.00" shape="19242.52,24889.87 19274.99,24902.66 19286.69,24873.68 19254.42,24860.59 19242.52,24889.87"/>
    <poly id="171976105" type="building" color="255,230,230" fill="1" layer="-1.00" shape="19018.15,25189.47 19024.94,25173.28 19046.35,25181.74 19039.68,25198.48 19018.15,25189.47"/>
    <poly id="172246209" type="amenity" color="237,199,199" fill="1" layer="-1.00" shape="18557.00,25098.70 18577.18,25106.91 18583.11,25093.34 18584.94,25089.14 18588.01,25082.12 18578.12,25078.27 18566.94,25073.91 18557.00,25098.70"/>
    <poly id="176732666" type="building" color="255,230,230" fill="1" layer="-1.00" shape="16441.17,23548.78 16464.40,23557.26 16467.92,23547.71 16444.69,23539.23 16441.17,23548.78"/>
    <poly id="177340988" type="building" color="255,230,230" fill="1" layer="-1.00" shape="16417.27,22126.31 16454.03,22139.67 16464.84,22109.25 16445.23,22102.10 16441.83,22109.97 16426.29,22104.15 16417.27,22126.31"/>
    <poly id="182129181" type="building" color="255,230,230" fill="1" layer="-1.00" shape="16154.64,22909.51 16186.06,22924.11 16193.15,22907.11 16160.79,22892.76 16154.64,22909.51"/>
    <poly id="182192512" type="building" color="255,230,230" fill="1" layer="-1.00" shape="18467.86,22656.61 18483.05,22665.46 18478.25,22672.88 18528.78,22700.46 18542.17,22677.20 18520.43,22666.52 18525.24,22659.51 18481.30,22635.33 18467.86,22656.61"/>
    <poly id="182192513" type="building" color="255,230,230" fill="1" layer="-1.00" shape="18426.35,22827.62 18433.35,22837.62 18438.65,22833.56 18436.88,22830.50 18440.23,22828.18 18442.28,22831.23 18452.54,22820.60 18455.95,22821.37 18455.46,22824.77 18466.02,22829.06 18465.54,22833.30 18468.70,22835.48 18470.31,22831.22 18482.83,22834.63 18484.46,22831.50 18488.17,22832.83 18490.83,22824.32 18460.88,22813.38 18459.03,22792.28 18458.97,22789.46 18448.82,22791.08 18449.46,22794.73 18445.22,22795.37 18443.44,22791.75 18434.16,22794.76 18439.39,22814.67 18426.35,22827.62"/>
    <poly id="182192514" type="building" color="255,230,230" fill="1" layer="-1.00" shape="18408.06,22866.02 18432.87,22861.28 18435.89,22884.05 18465.27,22895.00 18460.44,22908.06 18430.18,22895.72 18431.24,22892.32 18426.68,22890.72 18407.46,22905.50 18399.37,22897.48 18415.52,22884.75 18408.06,22866.02"/>
    <poly id="182192515" type="building" color="255,230,230" fill="1" layer="-1.00" shape="18381.12,22944.73 18404.87,22940.72 18408.15,22960.02 18431.57,22967.13 18429.48,22973.93 18425.59,22972.75 18424.18,22977.36 18397.81,22969.35 18379.17,22984.62 18371.44,22975.26 18384.50,22964.56 18381.12,22944.73"/>
    <poly id="182192516" type="building" color="255,230,230" fill="1" layer="-1.00" shape="18459.02,23017.17 18444.86,23030.72 18454.70,23041.21 18469.98,23027.09 18493.05,23034.23 18497.01,23020.34 18480.76,23015.03 18478.88,22992.53 18453.24,22997.84 18459.02,23017.17"/>
    <poly id="182192517" type="building" color="255,230,230" fill="1" layer="-1.00" shape="18497.07,22954.94 18478.96,22968.56 18469.39,22957.77 18485.31,22947.57 18478.41,22928.26 18502.64,22923.26 18506.79,22945.72 18520.77,22950.79 18515.94,22963.56 18497.07,22954.94"/>
    <poly id="182192518" type="building" color="255,230,230" fill="1" layer="-1.00" shape="18496.29,22889.85 18504.71,22900.10 18521.39,22884.82 18542.81,22893.96 18546.76,22879.78 18530.80,22874.76 18528.09,22853.11 18503.53,22856.43 18509.63,22877.17 18496.29,22889.85"/>
    <poly id="182192519" type="building" color="255,230,230" fill="1" layer="-1.00" shape="18533.41,22809.32 18520.62,22820.29 18528.74,22829.70 18546.53,22814.12 18568.82,22824.37 18573.38,22811.86 18555.97,22805.19 18552.97,22783.26 18528.74,22788.55 18533.41,22809.32"/>
    <poly id="182192520" type="building" color="255,230,230" fill="1" layer="-1.00" shape="18488.83,22768.51 18457.18,22757.40 18451.67,22771.86 18433.53,22765.87 18443.14,22736.76 18494.32,22753.24 18488.83,22768.51"/>
    <poly id="182197532" type="building" color="255,230,230" fill="1" layer="-1.00" shape="18388.37,22430.12 18350.99,22411.14 18370.06,22373.89 18407.43,22392.87 18388.37,22430.12"/>
    <poly id="182197533" type="building" color="255,230,230" fill="1" layer="-1.00" shape="18428.25,22490.21 18390.24,22470.21 18409.50,22433.98 18447.50,22453.98 18428.25,22490.21"/>
    <poly id="182197534" type="building" color="255,230,230" fill="1" layer="-1.00" shape="18347.80,22373.88 18308.05,22351.25 18329.78,22313.42 18369.53,22336.04 18347.80,22373.88"/>
    <poly id="182197535" type="building" color="255,230,230" fill="1" layer="-1.00" shape="18232.27,22389.14 18273.27,22412.15 18296.22,22371.60 18255.22,22348.59 18232.27,22389.14"/>
    <poly id="182695674" type="building" color="255,230,230" fill="1" layer="-1.00" shape="18199.76,23255.53 18220.33,23262.92 18230.92,23235.32 18210.78,23227.29 18199.76,23255.53"/>
    <poly id="182695688" type="building" color="255,230,230" fill="1" layer="-1.00" shape="18735.56,22804.99 18741.87,22794.11 18788.56,22819.01 18782.70,22829.72 18735.56,22804.99"/>
    <poly id="182695689" type="building" color="255,230,230" fill="1" layer="-1.00" shape="18889.70,22598.70 18960.96,22636.85 18967.11,22625.69 18896.30,22587.52 18889.70,22598.70"/>
    <poly id="182695690" type="building" color="255,230,230" fill="1" layer="-1.00" shape="18827.59,22584.54 18874.41,22610.43 18880.31,22599.72 18833.39,22574.05 18827.59,22584.54"/>
    <poly id="182695691" type="building" color="255,230,230" fill="1" layer="-1.00" shape="18780.17,22644.66 18790.81,22649.90 18820.60,22594.42 18810.28,22588.86 18780.17,22644.66"/>
    <poly id="182695692" type="building" color="255,230,230" fill="1" layer="-1.00" shape="18851.21,22662.23 18914.08,22695.48 18920.09,22684.56 18856.89,22651.11 18851.21,22662.23"/>
    <poly id="182695693" type="building" color="255,230,230" fill="1" layer="-1.00" shape="18779.15,22673.24 18826.30,22698.90 18831.68,22689.06 18784.64,22663.19 18779.15,22673.24"/>
    <poly id="182695694" type="building" color="255,230,230" fill="1" layer="-1.00" shape="18867.36,22783.93 18907.30,22710.39 18917.84,22716.05 18877.69,22789.81 18867.36,22783.93"/>
    <poly id="182695695" type="building" color="255,230,230" fill="1" layer="-1.00" shape="18767.00,22746.26 18847.35,22790.13 18853.91,22778.37 18773.89,22734.15 18767.00,22746.26"/>
    <poly id="182695696" type="building" color="255,230,230" fill="1" layer="-1.00" shape="18791.00,22834.69 18838.38,22859.96 18844.46,22849.18 18797.62,22824.12 18791.00,22834.69"/>
    <poly id="182695697" type="building" color="255,230,230" fill="1" layer="-1.00" shape="18634.50,22748.32 18704.68,22787.19 18710.39,22777.12 18640.40,22737.51 18634.50,22748.32"/>
    <poly id="182695698" type="building" color="255,230,230" fill="1" layer="-1.00" shape="18549.90,22702.90 18623.21,22742.46 18628.81,22732.45 18555.82,22693.11 18549.90,22702.90"/>
    <poly id="182695699" type="building" color="255,230,230" fill="1" layer="-1.00" shape="18665.84,22690.14 18672.18,22679.41 18743.32,22718.38 18736.65,22729.17 18665.84,22690.14"/>
    <poly id="182695700" type="building" color="255,230,230" fill="1" layer="-1.00" shape="18599.45,22653.00 18652.79,22682.17 18658.95,22670.85 18605.99,22641.96 18599.45,22653.00"/>
    <poly id="182695701" type="building" color="255,230,230" fill="1" layer="-1.00" shape="18521.70,22597.11 18591.89,22635.14 18598.19,22623.51 18528.30,22586.23 18521.70,22597.11"/>
    <poly id="182695702" type="amenity" color="237,199,199" fill="1" layer="-1.00" shape="18653.58,22620.93 18685.97,22637.19 18683.58,22641.93 18705.62,22653.30 18707.84,22649.28 18730.11,22660.03 18727.73,22664.84 18734.83,22669.13 18756.10,22629.63 18745.66,22623.85 18731.19,22649.91 18670.01,22616.86 18683.79,22592.19 18672.51,22586.86 18653.58,22620.93"/>
    <poly id="182695703" type="amenity" color="237,199,199" fill="1" layer="-1.00" shape="18253.20,23065.12 18259.77,23049.10 18267.28,23052.04 18269.74,23046.09 18280.85,23050.55 18272.88,23069.63 18271.24,23068.90 18268.73,23074.78 18260.62,23071.47 18261.81,23068.57 18253.20,23065.12"/>
    <poly id="182695704" type="amenity" color="237,199,199" fill="1" layer="-1.00" shape="18270.69,23084.06 18282.92,23088.83 18290.79,23069.63 18287.98,23068.57 18289.21,23065.82 18280.16,23062.00 18270.69,23084.06"/>
    <poly id="182695705" type="building" color="255,230,230" fill="1" layer="-1.00" shape="18230.93,23215.56 18169.68,23191.42 18177.56,23169.46 18178.87,23165.82 18199.38,23173.26 18202.79,23161.99 18245.36,23178.66 18230.93,23215.56"/>
    <poly id="182695706" type="amenity" color="237,199,199" fill="1" layer="-1.00" shape="18313.59,22946.41 18230.21,22923.55 18256.82,22828.88 18253.36,22827.88 18255.73,22817.56 18284.89,22825.52 18282.10,22836.49 18268.93,22832.91 18245.93,22915.31 18317.67,22935.64 18314.57,22946.94 18313.59,22946.41"/>
    <poly id="182695706#1" type="building" color="255,230,230" fill="1" layer="-1.00" shape="18313.59,22946.41 18230.21,22923.55 18256.82,22828.88 18253.36,22827.88 18255.73,22817.56 18284.89,22825.52 18282.10,22836.49 18268.93,22832.91 18245.93,22915.31 18317.67,22935.64 18314.57,22946.94 18313.59,22946.41"/>
    <poly id="182695708" type="amenity" color="237,199,199" fill="1" layer="-1.00" shape="18079.48,22707.20 18128.89,22613.77 18207.77,22657.91 18202.41,22668.29 18133.53,22630.57 18117.42,22661.71 18186.93,22698.99 18181.35,22709.36 18111.18,22671.67 18095.72,22702.80 18163.29,22739.90 18157.49,22750.51 18079.48,22707.20"/>
    <poly id="182695708#1" type="building" color="255,230,230" fill="1" layer="-1.00" shape="18079.48,22707.20 18128.89,22613.77 18207.77,22657.91 18202.41,22668.29 18133.53,22630.57 18117.42,22661.71 18186.93,22698.99 18181.35,22709.36 18111.18,22671.67 18095.72,22702.80 18163.29,22739.90 18157.49,22750.51 18079.48,22707.20"/>
    <poly id="182695709" type="amenity" color="237,199,199" fill="1" layer="-1.00" shape="18203.01,22707.09 18219.06,22675.61 18255.49,22695.87 18238.77,22726.66 18203.01,22707.09"/>
    <poly id="182695709#1" type="building" color="255,230,230" fill="1" layer="-1.00" shape="18203.01,22707.09 18219.06,22675.61 18255.49,22695.87 18238.77,22726.66 18203.01,22707.09"/>
    <poly id="182695710" type="amenity" color="237,199,199" fill="1" layer="-1.00" shape="18082.49,22764.78 18074.36,22797.62 18224.42,22841.09 18234.35,22807.62 18224.87,22804.64 18217.91,22827.46 18182.15,22817.31 18188.50,22793.73 18177.95,22790.48 18171.45,22814.06 18135.24,22803.62 18141.89,22780.18 18131.96,22777.21 18125.13,22799.89 18089.24,22789.89 18095.60,22767.07 18083.21,22762.95 18082.49,22764.78"/>
    <poly id="182695710#1" type="building" color="255,230,230" fill="1" layer="-1.00" shape="18082.49,22764.78 18074.36,22797.62 18224.42,22841.09 18234.35,22807.62 18224.87,22804.64 18217.91,22827.46 18182.15,22817.31 18188.50,22793.73 18177.95,22790.48 18171.45,22814.06 18135.24,22803.62 18141.89,22780.18 18131.96,22777.21 18125.13,22799.89 18089.24,22789.89 18095.60,22767.07 18083.21,22762.95 18082.49,22764.78"/>
    <poly id="187663668" type="leisure" color="207,245,201" fill="1" layer="-2.00" shape="15701.79,23068.33 15780.88,23095.26 15802.34,23043.78 15721.85,23018.06 15701.79,23068.33"/>
    <poly id="187663668#1" type="sport" color="79,230,125" fill="1" layer="-2.00" shape="15701.79,23068.33 15780.88,23095.26 15802.34,23043.78 15721.85,23018.06 15701.79,23068.33"/>
    <poly id="187663672" type="building" color="255,230,230" fill="1" layer="-1.00" shape="16924.88,22189.20 16939.97,22161.96 16954.43,22149.85 16969.83,22120.51 16912.81,22111.02 16902.12,22172.95 16905.09,22179.04 16924.88,22189.20"/>
    <poly id="192743492" type="building" color="255,230,230" fill="1" layer="-1.00" shape="17518.74,25318.16 17566.08,25335.39 17562.47,25345.20 17553.80,25342.04 17552.38,25345.92 17545.82,25343.54 17547.25,25339.64 17530.75,25333.64 17529.22,25337.80 17522.66,25335.40 17524.19,25331.24 17515.15,25327.96 17518.74,25318.16"/>
    <poly id="192743495" type="building" color="255,230,230" fill="1" layer="-1.00" shape="17497.67,25387.00 17514.22,25336.99 17503.16,25333.37 17499.91,25343.19 17493.86,25341.21 17491.72,25347.68 17496.99,25349.40 17491.06,25367.31 17487.39,25366.11 17485.08,25373.07 17488.24,25374.11 17485.32,25382.95 17497.67,25387.00"/>
    <poly id="192743499" type="building" color="255,230,230" fill="1" layer="-1.00" shape="17491.15,25399.76 17544.16,25418.30 17540.40,25428.94 17529.57,25425.14 17527.88,25429.94 17521.29,25427.64 17522.86,25423.22 17503.99,25416.61 17502.14,25421.83 17495.55,25419.52 17497.34,25414.47 17487.21,25410.93 17491.15,25399.76"/>
    <poly id="192743502" type="building" color="255,230,230" fill="1" layer="-1.00" shape="17571.88,25335.09 17624.88,25353.64 17621.13,25364.27 17610.30,25360.49 17608.61,25365.29 17602.02,25362.98 17603.59,25358.55 17584.71,25351.95 17582.88,25357.18 17576.28,25354.87 17578.06,25349.80 17567.94,25346.26 17571.88,25335.09"/>
    <poly id="192743506" type="building" color="255,230,230" fill="1" layer="-1.00" shape="17549.66,25400.40 17602.66,25418.94 17598.90,25429.59 17588.07,25425.79 17586.37,25430.59 17579.79,25428.28 17581.35,25423.86 17562.49,25417.25 17560.64,25422.48 17554.05,25420.17 17555.84,25415.12 17545.71,25411.58 17549.66,25400.40"/>
    <poly id="192743510" type="building" color="255,230,230" fill="1" layer="-1.00" shape="17577.62,25493.37 17580.65,25484.30 17578.24,25483.51 17580.36,25477.18 17583.42,25478.20 17588.57,25462.80 17585.91,25461.93 17588.15,25455.23 17591.30,25456.27 17593.69,25449.13 17604.28,25452.64 17589.36,25497.25 17577.62,25493.37"/>
    <poly id="192743515" type="building" color="255,230,230" fill="1" layer="-1.00" shape="17524.04,25480.38 17547.70,25488.94 17548.30,25487.28 17575.04,25496.96 17571.10,25507.75 17560.91,25504.07 17559.22,25508.72 17552.61,25506.32 17554.19,25502.03 17544.18,25498.42 17543.59,25500.03 17535.65,25497.16 17534.11,25501.38 17527.54,25499.01 17529.07,25494.82 17519.98,25491.54 17524.04,25480.38"/>
    <poly id="192743530" type="building" color="255,230,230" fill="1" layer="-1.00" shape="17622.71,25401.52 17632.86,25372.20 17621.88,25368.43 17617.18,25382.02 17614.74,25381.18 17613.32,25385.27 17615.75,25386.11 17611.72,25397.75 17622.71,25401.52"/>
    <poly id="192743532" type="building" color="255,230,230" fill="1" layer="-1.00" shape="17582.60,25512.37 17614.28,25522.95 17610.22,25534.97 17596.03,25530.24 17594.74,25534.05 17590.55,25532.65 17591.99,25528.39 17578.69,25523.95 17582.60,25512.37"/>
    <poly id="192743571" type="leisure" color="207,245,201" fill="1" layer="-2.00" shape="17689.41,25309.79 17706.73,25260.99 17774.51,25284.84 17766.20,25306.16 17786.70,25314.08 17776.08,25340.27 17689.41,25309.79"/>
    <poly id="192743571#1" type="sport" color="79,230,125" fill="1" layer="-2.00" shape="17689.41,25309.79 17706.73,25260.99 17774.51,25284.84 17766.20,25306.16 17786.70,25314.08 17776.08,25340.27 17689.41,25309.79"/>
    <poly id="194285958" type="building" color="255,230,230" fill="1" layer="-1.00" shape="17765.94,23707.53 17825.97,23729.89 17830.00,23719.20 17827.04,23718.05 17771.43,23696.53 17765.94,23707.53"/>
    <poly id="194285959" type="building" color="255,230,230" fill="1" layer="-1.00" shape="17714.12,23755.99 17696.19,23751.00 17699.88,23740.63 17713.58,23743.85 17715.25,23739.52 17728.58,23745.25 17726.46,23749.00 17735.25,23759.71 17724.70,23765.82 17714.12,23755.99"/>
    <poly id="194285960" type="building" color="255,230,230" fill="1" layer="-1.00" shape="17838.83,23740.79 17835.17,23728.52 17850.39,23722.59 17850.42,23720.40 17860.77,23716.41 17870.89,23746.67 17858.21,23751.40 17854.37,23738.99 17851.06,23740.00 17849.34,23737.65 17838.83,23740.79"/>
    <poly id="194285961" type="building" color="255,230,230" fill="1" layer="-1.00" shape="17762.70,23779.86 17757.72,23768.62 17768.78,23762.94 17775.48,23744.40 17797.52,23753.60 17790.98,23771.01 17795.30,23783.65 17785.42,23788.84 17781.42,23777.80 17772.70,23774.25 17762.70,23779.86"/>
    <poly id="194286589" type="building" color="255,230,230" fill="1" layer="-1.00" shape="17751.03,23708.10 17745.24,23695.87 17742.87,23696.99 17741.73,23694.58 17729.88,23700.15 17724.10,23687.94 17739.04,23680.92 17737.23,23677.10 17748.97,23671.57 17763.50,23702.23 17751.03,23708.10"/>
    <poly id="194453799" type="building" color="255,230,230" fill="1" layer="-1.00" shape="17812.01,23595.77 17888.28,23625.62 17870.47,23670.64 17860.21,23666.81 17858.65,23671.10 17844.85,23669.50 17815.46,23659.24 17802.72,23651.46 17803.81,23646.48 17793.76,23641.97 17812.01,23595.77"/>
    <poly id="194454525" type="building" color="255,230,230" fill="1" layer="-1.00" shape="17731.56,23589.49 17739.43,23567.76 17750.31,23571.66 17747.92,23578.27 17779.31,23589.54 17775.08,23601.23 17743.37,23589.83 17742.12,23593.28 17731.56,23589.49"/>
    <poly id="194454526" type="building" color="255,230,230" fill="1" layer="-1.00" shape="17643.95,23578.70 17640.97,23571.91 17642.61,23571.41 17641.36,23568.13 17652.87,23562.69 17658.69,23546.03 17685.17,23554.72 17677.95,23572.59 17681.76,23583.11 17678.46,23583.89 17678.75,23586.48 17673.54,23588.97 17671.62,23586.16 17669.04,23587.16 17665.06,23578.50 17656.21,23575.38 17648.00,23579.56 17647.25,23577.92 17643.95,23578.70"/>
    <poly id="194454527" type="building" color="255,230,230" fill="1" layer="-1.00" shape="17802.34,23574.32 17784.20,23567.07 17800.81,23525.87 17818.95,23533.12 17802.34,23574.32"/>
    <poly id="194454528" type="building" color="255,230,230" fill="1" layer="-1.00" shape="17741.66,23565.85 17689.85,23546.43 17693.73,23536.17 17745.55,23555.58 17741.66,23565.85"/>
    <poly id="194454529" type="building" color="255,230,230" fill="1" layer="-1.00" shape="17690.77,23597.74 17719.59,23608.27 17718.56,23611.08 17732.10,23616.03 17736.08,23605.24 17727.36,23602.05 17728.24,23599.68 17694.58,23587.39 17690.77,23597.74"/>
    <poly id="194454530" type="building" color="255,230,230" fill="1" layer="-1.00" shape="17774.36,23646.60 17740.61,23633.24 17744.03,23624.70 17764.51,23632.81 17768.02,23624.01 17781.28,23629.25 17774.36,23646.60"/>
    <poly id="194455123" type="building" color="255,230,230" fill="1" layer="-1.00" shape="15958.04,23457.73 15969.99,23461.04 15992.77,23450.62 15996.16,23442.06 15973.20,23433.10 15966.14,23436.53 15958.04,23457.73"/>
    <poly id="194455125" type="building" color="255,230,230" fill="1" layer="-1.00" shape="16094.30,23532.20 16086.27,23529.28 16081.26,23519.05 16079.04,23518.53 16069.10,23497.17 16067.07,23492.78 16067.47,23489.70 16087.06,23495.90 16099.35,23521.58 16094.30,23532.20"/>
    <poly id="194455161" type="building" color="255,230,230" fill="1" layer="-1.00" shape="15904.28,23558.53 15914.26,23530.53 15907.27,23527.90 15908.26,23525.27 15907.19,23524.87 15908.13,23522.53 15909.12,23522.90 15909.68,23521.41 15889.93,23513.97 15877.64,23549.16 15904.28,23558.53"/>
    <poly id="220545879" type="building" color="255,230,230" fill="1" layer="-1.00" shape="15620.47,25367.50 15625.02,25352.39 15653.88,25361.01 15667.96,25399.50 15654.34,25404.43 15643.35,25374.33 15620.47,25367.50"/>
    <poly id="220545881" type="building" color="255,230,230" fill="1" layer="-1.00" shape="15597.28,25438.94 15601.63,25424.68 15619.70,25430.14 15653.74,25413.73 15659.60,25425.79 15618.84,25445.45 15597.28,25438.94"/>
    <poly id="220545882" type="building" color="255,230,230" fill="1" layer="-1.00" shape="15677.08,25466.57 15667.61,25446.82 15674.71,25443.44 15663.03,25419.07 15677.70,25412.10 15671.94,25400.08 15685.16,25393.78 15682.91,25389.10 15703.61,25379.25 15709.24,25390.98 15689.59,25400.33 15693.24,25407.92 15678.55,25414.90 15690.21,25439.20 15684.50,25441.92 15692.75,25459.12 15677.08,25466.57"/>
    <poly id="220545883" type="leisure" color="207,245,201" fill="1" layer="-2.00" shape="15667.26,25373.29 15671.29,25357.69 15695.69,25363.94 15691.66,25379.53 15667.26,25373.29"/>
    <poly id="229258834" type="building" color="255,230,230" fill="1" layer="-1.00" shape="16185.11,23471.09 16159.29,23462.44 16167.64,23437.76 16152.58,23432.71 16157.26,23418.86 16169.66,23423.01 16166.51,23432.35 16194.98,23441.90 16185.11,23471.09"/>
    <poly id="239953121" type="building" color="255,230,230" fill="1" layer="-1.00" shape="17677.55,24624.68 17688.18,24626.42 17689.27,24619.88 17686.51,24619.43 17687.44,24613.82 17682.09,24612.93 17681.15,24618.54 17678.63,24618.13 17677.55,24624.68"/>
    <poly id="239953121#1" type="historic" color="128,255,128" fill="1" layer="-1.00" shape="17677.55,24624.68 17688.18,24626.42 17689.27,24619.88 17686.51,24619.43 17687.44,24613.82 17682.09,24612.93 17681.15,24618.54 17678.63,24618.13 17677.55,24624.68"/>
    <poly id="239953124" type="building" color="255,230,230" fill="1" layer="-1.00" shape="17698.47,24635.76 17701.97,24636.37 17701.14,24641.14 17697.63,24640.52 17698.47,24635.76"/>
    <poly id="239953124#1" type="historic" color="128,255,128" fill="1" layer="-1.00" shape="17698.47,24635.76 17701.97,24636.37 17701.14,24641.14 17697.63,24640.52 17698.47,24635.76"/>
    <poly id="239953125" type="building" color="255,230,230" fill="1" layer="-1.00" shape="18222.82,24631.18 18231.78,24639.35 18236.43,24634.29 18234.26,24632.31 18238.87,24627.30 18234.43,24623.25 18229.82,24628.26 18227.47,24626.12 18222.82,24631.18"/>
    <poly id="239953125#1" type="historic" color="128,255,128" fill="1" layer="-1.00" shape="18222.82,24631.18 18231.78,24639.35 18236.43,24634.29 18234.26,24632.31 18238.87,24627.30 18234.43,24623.25 18229.82,24628.26 18227.47,24626.12 18222.82,24631.18"/>
    <poly id="239953128" type="building" color="255,230,230" fill="1" layer="-1.00" shape="18239.51,24653.55 18243.56,24649.60 18246.89,24652.97 18242.83,24656.93 18239.51,24653.55"/>
    <poly id="239953128#1" type="historic" color="128,255,128" fill="1" layer="-1.00" shape="18239.51,24653.55 18243.56,24649.60 18246.89,24652.97 18242.83,24656.93 18239.51,24653.55"/>
    <poly id="239953129" type="building" color="255,230,230" fill="1" layer="-1.00" shape="17712.39,24611.70 17717.62,24612.77 17716.54,24618.01 17711.32,24616.93 17712.39,24611.70"/>
    <poly id="239953129#1" type="historic" color="128,255,128" fill="1" layer="-1.00" shape="17712.39,24611.70 17717.62,24612.77 17716.54,24618.01 17711.32,24616.93 17712.39,24611.70"/>
    <poly id="243515060" type="amenity" color="237,199,199" fill="1" layer="-1.00" shape="19390.33,23036.34 19360.27,23122.08 19234.17,23079.52 19263.44,22994.70 19390.33,23036.34"/>
    <poly id="261335475" type="historic" color="128,255,128" fill="1" layer="-1.00" shape="16287.43,23943.77 16292.91,23931.39 16307.83,23937.93 16302.35,23950.32 16287.43,23943.77"/>
    <poly id="26505520" type="water" color="181,209,209" fill="0" layer="-4.00" shape="13133.18,17750.45 13263.66,17887.92 13302.26,17947.10 13327.18,17995.16 13359.99,18063.38 13376.91,18086.32 13402.75,18107.09 13428.06,18126.87 13452.74,18140.24 13511.86,18157.82 13620.62,18191.20 13704.31,18216.70 13724.44,18227.18 13760.80,18274.99 13769.57,18289.68 13773.41,18305.96 13773.68,18318.85 13754.30,18414.45 13746.89,18464.18 13744.62,18497.93 13758.38,18536.32 13774.15,18552.35 13812.53,18554.51 13832.82,18571.92 13862.91,18582.68 13895.44,18590.43 13941.24,18613.75 13982.07,18637.67 14074.38,18717.52 14111.34,18746.98 14154.26,18775.32 14197.91,18791.75 14247.99,18805.55 14434.22,18830.87 14548.52,18844.82 14621.34,18851.21 14657.60,18846.98 14710.69,18838.91 14824.63,18812.22 14865.48,18813.34 14916.90,18819.70 15042.40,18845.81 15234.87,18883.90 15325.64,18915.20 15462.50,18984.71 15620.88,19058.71 15703.45,19103.08 15755.44,19137.19 15789.09,19175.15 15906.38,19372.03 15916.54,19389.10 15958.28,19457.13 16004.02,19525.56 16150.25,19781.25 16155.75,19806.42 16056.13,20136.63 16054.10,20158.48 16056.08,20181.24 16064.45,20200.89 16079.40,20225.85 16230.69,20462.09 16363.77,20627.84 16427.84,20697.11 16463.85,20723.40 16499.81,20747.44 16569.80,20776.02 16650.18,20795.38 16826.81,20836.77 16993.05,20932.13 17034.84,20955.13 17064.25,20998.12 17275.74,21282.14 17466.25,21554.90 17479.36,21569.43 17550.41,21628.85 17624.30,21685.31 17756.29,21775.13 17920.68,21891.43 18088.77,22010.95 18316.76,22163.07 18600.88,22364.16 18750.59,22445.17 19031.83,22507.42 19420.72,22590.14 19568.01,22645.70 19692.08,22738.60 19785.31,22833.35 19957.49,23031.77 20041.68,23169.48 20076.61,23342.74 20055.52,23482.59 20019.43,23575.87 20018.43,23668.02 20041.03,23742.82 20046.14,23824.67 20061.09,23905.91 20062.58,23918.74"/>
    <poly id="272052331" type="building" color="255,230,230" fill="1" layer="-1.00" shape="17342.68,24055.82 17392.38,24072.95 17400.07,24050.82 17350.37,24033.69 17342.68,24055.82"/>
    <poly id="272052332" type="building" color="255,230,230" fill="1" layer="-1.00" shape="17330.92,24113.36 17352.66,24121.02 17368.59,24076.27 17346.85,24068.61 17330.92,24113.36"/>
    <poly id="272052333" type="building" color="255,230,230" fill="1" layer="-1.00" shape="17400.64,24076.57 17450.09,24094.26 17458.25,24071.64 17408.81,24053.97 17400.64,24076.57"/>
    <poly id="272052334" type="building" color="255,230,230" fill="1" layer="-1.00" shape="17417.87,24188.86 17425.49,24167.25 17360.90,24144.68 17364.06,24135.72 17339.44,24127.12 17325.83,24165.71 17350.09,24174.19 17352.92,24166.17 17417.87,24188.86"/>